Version 4
SHEET 1 1496 904
WIRE 336 -144 320 -144
WIRE 704 -144 512 -144
WIRE 896 -144 768 -144
WIRE 336 -128 336 -144
WIRE 768 -80 736 -80
WIRE 768 -48 768 -80
WIRE 736 -16 736 -80
WIRE 208 0 176 0
WIRE 336 0 336 -48
WIRE 336 0 272 0
WIRE 400 0 336 0
WIRE 512 0 512 -144
WIRE 512 0 480 0
WIRE 544 0 512 0
WIRE 704 0 624 0
WIRE 896 16 896 -144
WIRE 896 16 768 16
WIRE 992 16 896 16
WIRE 704 32 672 32
WIRE 176 48 176 0
WIRE 672 128 672 32
WIRE 768 128 672 128
WIRE 896 128 896 16
WIRE 896 128 848 128
WIRE 624 160 624 0
WIRE 672 160 672 128
WIRE 16 176 -192 176
WIRE 480 272 288 272
WIRE 784 272 480 272
WIRE 992 272 992 16
WIRE 1088 272 992 272
WIRE 1264 288 1152 288
WIRE 1424 288 1344 288
WIRE -192 304 -192 176
WIRE -112 304 -192 304
WIRE 1088 304 992 304
WIRE 1424 304 1424 288
WIRE 16 320 16 176
WIRE 16 320 -48 320
WIRE 80 320 16 320
WIRE -288 336 -288 304
WIRE -112 336 -288 336
WIRE -288 368 -288 336
WIRE 480 400 480 272
WIRE 352 416 288 416
WIRE 448 416 352 416
WIRE 528 432 512 432
WIRE 576 432 528 432
WIRE 688 432 656 432
WIRE 736 432 688 432
WIRE 864 432 800 432
WIRE 448 448 400 448
WIRE 480 480 480 464
WIRE 528 496 528 432
WIRE 784 496 784 272
WIRE 688 512 688 432
WIRE 752 512 688 512
WIRE 864 528 864 432
WIRE 864 528 816 528
WIRE 992 528 992 304
WIRE 992 528 864 528
WIRE 752 544 688 544
WIRE 784 576 784 560
WIRE 400 592 400 448
WIRE 528 592 528 576
WIRE 528 592 400 592
WIRE 400 640 400 592
WIRE 576 640 400 640
WIRE 864 640 864 528
WIRE 864 640 656 640
WIRE 352 704 352 416
WIRE 688 704 688 544
WIRE 688 704 352 704
FLAG -128 80 0
FLAG -128 0 VCC
IOPIN -128 0 Out
FLAG 1120 320 VCC
IOPIN 1120 320 In
FLAG 1120 256 0
FLAG 480 480 0
FLAG 784 576 0
FLAG 1424 368 0
FLAG 176 128 0
FLAG -80 288 VCC
IOPIN -80 288 In
FLAG -80 352 0
FLAG 288 272 VCC
IOPIN 288 272 In
FLAG 736 48 VCC
IOPIN 736 48 In
FLAG 768 -48 0
FLAG 624 224 0
FLAG 672 240 0
FLAG -288 448 0
FLAG -288 224 VCC
IOPIN -288 224 In
FLAG 80 320 5V
IOPIN 80 320 Out
FLAG 288 416 5V
IOPIN 288 416 In
FLAG 320 -144 5V
IOPIN 320 -144 In
SYMBOL voltage -128 -16 R0
WINDOW 123 0 0 Left 0
WINDOW 39 0 0 Left 0
SYMATTR InstName V1
SYMATTR Value 10
SYMBOL Opamps\\LTC6244 1120 288 M180
SYMATTR InstName U5
SYMBOL res 672 416 R90
WINDOW 0 0 56 VBottom 2
WINDOW 3 32 56 VTop 2
SYMATTR InstName R5
SYMATTR Value 2.2k
SYMBOL res 544 592 R180
WINDOW 0 36 76 Left 2
WINDOW 3 36 40 Left 2
SYMATTR InstName R6
SYMATTR Value 27k
SYMBOL res 672 624 R90
WINDOW 0 0 56 VBottom 2
WINDOW 3 32 56 VTop 2
SYMATTR InstName R7
SYMATTR Value 6k
SYMBOL cap 800 416 R90
WINDOW 0 0 32 VBottom 2
WINDOW 3 32 32 VTop 2
SYMATTR InstName C
SYMATTR Value 10n
SYMBOL OpAmps\\LTC6244 480 432 R0
SYMATTR InstName U3
SYMBOL OpAmps\\LTC6244 784 528 R0
SYMATTR InstName U4
SYMBOL cap 1408 304 R0
SYMATTR InstName C3
SYMATTR Value 10n
SYMBOL res 1360 272 R90
WINDOW 0 0 56 VBottom 2
WINDOW 3 32 56 VTop 2
SYMATTR InstName R10
SYMATTR Value 7.5k
SYMBOL res 320 -144 R0
SYMATTR InstName R1
SYMATTR Value 16k
SYMBOL cap 272 -16 R90
WINDOW 0 0 32 VBottom 2
WINDOW 3 32 32 VTop 2
SYMATTR InstName C4
SYMATTR Value 10µ
SYMBOL voltage 176 32 R0
WINDOW 123 24 124 Left 2
WINDOW 39 0 0 Left 0
SYMATTR Value2 AC 1
SYMATTR InstName V2
SYMATTR Value SINE(0 1 200)
SYMBOL OpAmps\\LTC6244 -80 320 R0
SYMATTR InstName U1
SYMBOL OpAmps\\LTC6244 736 16 M180
SYMATTR InstName U2
SYMBOL cap 768 -160 R90
WINDOW 0 0 32 VBottom 2
WINDOW 3 32 32 VTop 2
SYMATTR InstName C1
SYMATTR Value 100n
SYMBOL res 640 -16 R90
WINDOW 0 0 56 VBottom 2
WINDOW 3 32 56 VTop 2
SYMATTR InstName R2F
SYMATTR Value 800
SYMBOL res 496 -16 R90
WINDOW 0 0 56 VBottom 2
WINDOW 3 32 56 VTop 2
SYMATTR InstName R1F
SYMATTR Value 800
SYMBOL res 864 112 R90
WINDOW 0 0 56 VBottom 2
WINDOW 3 32 56 VTop 2
SYMATTR InstName RA
SYMATTR Value 1k
SYMBOL res 656 144 R0
SYMATTR InstName RB
SYMATTR Value 820k
SYMBOL cap 608 160 R0
SYMATTR InstName C2
SYMATTR Value 100n
SYMBOL res -304 208 R0
SYMATTR InstName R2
SYMATTR Value 10k
SYMBOL res -304 352 R0
SYMATTR InstName R3
SYMATTR Value 10k
TEXT -152 888 Left 2 !.tran 0 10m 0 0.1m
