Version 4
SHEET 1 880 680
WIRE 256 48 240 48
WIRE 432 48 336 48
WIRE 640 48 576 48
WIRE 752 48 720 48
WIRE 16 160 -80 160
WIRE 240 160 240 48
WIRE 240 160 96 160
WIRE 336 160 240 160
WIRE 432 176 432 48
WIRE 432 176 400 176
WIRE 496 176 432 176
WIRE 576 176 576 48
WIRE 640 176 576 176
WIRE 336 192 160 192
WIRE 752 192 752 48
WIRE 752 192 704 192
WIRE 640 208 624 208
WIRE -80 224 -80 160
WIRE 160 224 160 192
WIRE 624 240 624 208
FLAG 368 208 0
FLAG -80 96 0
FLAG -80 304 0
FLAG 160 304 0
FLAG -80 16 VCC
IOPIN -80 16 Out
FLAG 368 144 VCC
IOPIN 368 144 In
FLAG 672 224 0
FLAG 672 160 VCC
IOPIN 672 160 In
FLAG 624 320 0
SYMBOL Opamps\\LTC6244 368 176 R0
SYMATTR InstName U1
SYMBOL voltage -80 0 R0
WINDOW 123 0 0 Left 0
WINDOW 39 0 0 Left 0
SYMATTR InstName V1
SYMATTR Value 10
SYMBOL voltage 160 208 R0
WINDOW 123 0 0 Left 0
WINDOW 39 0 0 Left 0
SYMATTR InstName V2
SYMATTR Value 2.5
SYMBOL voltage -80 208 R0
WINDOW 123 0 0 Left 0
WINDOW 39 0 0 Left 0
SYMATTR InstName V3
SYMATTR Value SINE(0 1 200)
SYMBOL res 112 144 R90
WINDOW 0 0 56 VBottom 2
WINDOW 3 32 56 VTop 2
SYMATTR InstName R1
SYMATTR Value 10k
SYMBOL res 352 32 R90
WINDOW 0 0 56 VBottom 2
WINDOW 3 32 56 VTop 2
SYMATTR InstName R2
SYMATTR Value 10k
SYMBOL Opamps\\LTC6244 672 192 R0
SYMATTR InstName U2
SYMBOL res 736 32 R90
WINDOW 0 0 56 VBottom 2
WINDOW 3 32 56 VTop 2
SYMATTR InstName R3
SYMATTR Value 10k
SYMBOL res 592 160 R90
WINDOW 0 0 56 VBottom 2
WINDOW 3 32 56 VTop 2
SYMATTR InstName R4
SYMATTR Value 10k
SYMBOL voltage 624 224 R0
WINDOW 123 0 0 Left 0
WINDOW 39 0 0 Left 0
SYMATTR InstName V4
SYMATTR Value 5
TEXT -150 328 Left 2 !.tran 0 10m 0 100u
