Version 4
SHEET 1 880 680
WIRE 160 -128 144 -128
WIRE 240 -128 160 -128
WIRE 368 -128 320 -128
WIRE 400 -128 368 -128
WIRE 160 -96 160 -128
WIRE 368 -96 368 -128
WIRE 64 -48 64 -128
WIRE 480 -48 480 -128
WIRE 160 -16 160 -32
WIRE 208 -16 160 -16
WIRE 368 -16 368 -32
WIRE 368 -16 320 -16
WIRE 160 0 160 -16
WIRE 368 0 368 -16
WIRE 208 16 208 -16
WIRE 320 16 320 -16
WIRE 64 96 64 32
WIRE 160 96 160 80
WIRE 160 96 64 96
WIRE 208 96 208 80
WIRE 208 96 160 96
WIRE 272 96 208 96
WIRE 320 96 320 80
WIRE 320 96 272 96
WIRE 368 96 368 80
WIRE 368 96 320 96
WIRE 480 96 480 32
WIRE 480 96 368 96
WIRE 272 112 272 96
FLAG 272 112 0
SYMBOL ind 48 -112 R270
WINDOW 0 32 56 VTop 2
WINDOW 3 5 56 VBottom 2
SYMATTR InstName L1
SYMATTR Value 1.6m
SYMBOL ind 384 -112 R270
WINDOW 0 32 56 VTop 2
WINDOW 3 5 56 VBottom 2
SYMATTR InstName L2
SYMATTR Value 1.6m
SYMBOL cap 144 -96 R0
SYMATTR InstName C1
SYMATTR Value 100µ
SYMBOL cap 352 -96 R0
SYMATTR InstName C2
SYMATTR Value 100µ
SYMBOL cap 192 16 R0
SYMATTR InstName C3
SYMATTR Value 100µ
SYMBOL cap 304 16 R0
SYMATTR InstName C4
SYMATTR Value 100µ
SYMBOL res 144 -16 R0
SYMATTR InstName R1
SYMATTR Value 5.6
SYMBOL res 352 -16 R0
SYMATTR InstName R2
SYMATTR Value 5.6
SYMBOL res 336 -144 R90
WINDOW 0 0 56 VBottom 2
WINDOW 3 32 56 VTop 2
SYMATTR InstName R3
SYMATTR Value 4
SYMBOL voltage 64 -64 R0
SYMATTR InstName V1
SYMBOL voltage 480 -64 R0
SYMATTR InstName V2
